
     RDKit          3D

  9  8  0  0  0  0  0  0  0  0999 V2000
   -1.0695   -0.0260    0.1958 N   0  0  0  0  0  4  0  0  0  0  0  0
    0.3412    0.1947    0.4948 C   0  0  0  0  0  3  0  0  0  0  0  0
    1.1625   -0.1298   -0.6646 N   0  0  0  0  0  3  0  0  0  0  0  0
   -1.6369    0.2308    1.0349 H   0  0  0  0  0  0  0  0  0  0  0  0
   -1.3591    0.5676   -0.6152 H   0  0  0  0  0  0  0  0  0  0  0  0
   -1.2272   -1.0353   -0.0255 H   0  0  0  0  0  0  0  0  0  0  0  0
    0.5025    1.2571    0.7842 H   0  0  0  0  0  0  0  0  0  0  0  0
    1.1361   -1.1678   -0.7843 H   0  0  0  0  0  0  0  0  0  0  0  0
    2.1503    0.1087   -0.4201 H   0  0  0  0  0  0  0  0  0  0  0  0
  1  2  1  0
  2  3  1  0
  1  4  1  0
  1  5  1  0
  1  6  1  0
  2  7  1  0
  3  8  1  0
  3  9  1  0
M  CHG  2   1   1   3   1
M  RAD  2   2   2   3   2
M  END
$$$$
